11

  N    -2.0370000000     0.1060000000     0.0000000000 
  C    -2.0370000000     2.8760000000     0.0000000000 
  C    -0.8470000000     2.1760000000     0.0000000000 
  C    -3.2270000000     2.1760000000     0.0000000000 
  C    -0.9070000000     0.7860000000     0.0000000000 
  C    -3.1670000000     0.7860000000     0.0000000000 
  H    -2.0370000000     3.9560000000     0.0000000000 
  H     0.1030000000     2.6760000000     0.0000000000 
  H    -4.1770000000     2.6760000000     0.0000000000 
  H     0.0030000000     0.2060000000     0.0000000000 
  H    -4.0770000000     0.2060000000     0.0000000000 