14

  O    -2.0370000000     0.1460000000     0.2900000000 
  O    -2.0370000000     2.8660000000    -0.2900000000 
  C    -0.8770000000     2.2460000000     0.1900000000 
  C    -0.8770000000     0.7660000000    -0.1900000000 
  C    -3.1970000000     2.2460000000     0.1900000000 
  C    -3.1970000000     0.7660000000    -0.1900000000 
  H    -0.0370000000     2.7560000000    -0.2600000000 
  H    -0.8170000000     2.3460000000     1.2700000000 
  H    -3.2570000000     2.3460000000     1.2700000000 
  H    -4.0370000000     2.7560000000    -0.2600000000 
  H    -0.8170000000     0.6660000000    -1.2700000000 
  H    -0.0370000000     0.2560000000     0.2600000000 
  H    -4.0370000000     0.2560000000     0.2600000000 
  H    -3.2570000000     0.6660000000    -1.2700000000 