13

  N     1.1430000000     1.5060000000     0.0000000000 
  C    -1.4370000000     1.5060000000     0.0000000000 
  C    -2.1270000000     2.7160000000     0.0000000000 
  C    -2.1270000000     0.2960000000     0.0000000000 
  C    -3.5070000000     2.7060000000     0.0000000000 
  C    -3.5070000000     0.3060000000     0.0000000000 
  C    -4.1970000000     1.5060000000     0.0000000000 
  C     0.0030000000     1.5060000000     0.0000000000 
  H    -1.5870000000     3.6360000000     0.0000000000 
  H    -1.5870000000    -0.6240000000     0.0000000000 
  H    -4.0470000000     3.6360000000     0.0000000000 
  H    -4.0470000000    -0.6240000000     0.0000000000 
  H    -5.2770000000     1.5060000000     0.0000000000 