12

  C    -0.8870000000     2.2760000000     0.0000000000 
  C    -0.7970000000     0.8960000000     0.0000000000 
  C    -2.1270000000     2.8860000000     0.0000000000 
  C    -1.9470000000     0.1260000000     0.0000000000 
  C    -3.2770000000     2.1160000000     0.0000000000 
  C    -3.1870000000     0.7360000000     0.0000000000 
  H     0.0030000000     2.8760000000     0.0000000000 
  H     0.1730000000     0.4260000000     0.0000000000 
  H    -2.2070000000     3.9660000000     0.0000000000 
  H    -1.8670000000    -0.9540000000     0.0000000000 
  H    -4.2470000000     2.5860000000     0.0000000000 
  H    -4.0770000000     0.1360000000     0.0000000000 