14

  N     0.2930000000     1.5060000000    -0.0800000000 
  C    -1.1070000000     1.5060000000    -0.0100000000 
  C    -1.8170000000     2.7060000000    -0.0100000000 
  C    -1.8170000000     0.3060000000    -0.0100000000 
  C    -3.1970000000     2.6960000000     0.0000000000 
  C    -3.1970000000     0.3160000000     0.0000000000 
  C    -3.9070000000     1.5060000000     0.0100000000 
  H    -1.2870000000     3.6360000000    -0.0200000000 
  H    -1.2870000000    -0.6240000000    -0.0200000000 
  H    -3.7270000000     3.6360000000     0.0100000000 
  H    -3.7270000000    -0.6240000000     0.0100000000 
  H    -4.9770000000     1.5060000000     0.0200000000 
  H     0.7130000000     0.6860000000     0.3000000000 
  H     0.7130000000     2.3260000000     0.3000000000 